pcf
* control data
             restart          estimation
       494     14006         7         0        11         0
         2         2              single               point         1         0         0          noobsreref
   2.000000E+01  -3.000000E+00   3.000000E-01   1.000000E-02        -7       999          lamforgive        noderforgive
   1.000000E+01   1.000000E+01   1.000000E-03         0         0
   1.000000E-01         1   1.100000E+00               noaui          nosenreuse        noboundscale
         0   1.000000E-02         3         3   1.000000E-02         3   0.000000E+00         1  -1.000000E+00
         0         0         0         0             jcosave          verboserec          jcosaveitn          reisaveitn          parsaveitn        noparsaverun
* singular value decomposition
         1
  10000000    1.000000E-06
1
* parameter groups
 rz                      relative              1.0000000000E-02       0.0  switch                2.0000000000E+00       parabolic             1.0000000000E-05      5.0000000000E-01       smaller              
 mni                     relative              1.0000000000E-02       0.0  switch                2.0000000000E+00       parabolic             1.0000000000E-05      5.0000000000E-01       smaller              
 tew                     relative              1.0000000000E-02       0.0  switch                2.0000000000E+00       parabolic             1.0000000000E-05      5.0000000000E-01       smaller              
 rew                     relative              1.0000000000E-02       0.0  switch                2.0000000000E+00       parabolic             1.0000000000E-05      5.0000000000E-01       smaller              
 cn                      relative              1.0000000000E-02       0.0  switch                2.0000000000E+00       parabolic             1.0000000000E-05      5.0000000000E-01       smaller              
 kcb-mid                 relative              1.0000000000E-02       0.0  switch                2.0000000000E+00       parabolic             1.0000000000E-05      5.0000000000E-01       smaller              
 height                  relative              1.0000000000E-02       0.0  switch                2.0000000000E+00       parabolic             1.0000000000E-05      5.0000000000E-01       smaller              
* parameter data
 bare_a_cn              log                    factor                8.1400000000E+01      5.5700000000E+01      9.0200000000E+01       cn                    1.0000000000E+00      0.0000000000E+00      1          
 bare_a_mni             log                    factor                3.7500000000E+00      9.3750000000E-01      7.5000000000E+00       mni                   1.0000000000E+00      0.0000000000E+00      1          
 bare_a_rew             log                    factor                1.9600000000E-01      1.9600000000E-02      2.9400000000E-01       rew                   1.0000000000E+00      0.0000000000E+00      1          
 bare_a_rz              log                    factor                2.4403150000E+00      1.2201575000E+00      3.6604725000E+00       rz                    1.0000000000E+00      0.0000000000E+00      1          
 bare_a_tew             log                    factor                3.5400000000E-01      3.5400000000E-02      5.3100000000E-01       tew                   1.0000000000E+00      0.0000000000E+00      1          
 bare_ad_mni            log                    factor                3.0000000000E+00      7.5000000000E-01      6.0000000000E+00       mni                   1.0000000000E+00      0.0000000000E+00      1          
 bare_ad_rew            log                    factor                1.9600000000E-01      1.9600000000E-02      2.9400000000E-01       rew                   1.0000000000E+00      0.0000000000E+00      1          
 bare_ad_rz             log                    factor                2.4403150000E+00      1.2201575000E+00      3.6604725000E+00       rz                    1.0000000000E+00      0.0000000000E+00      1          
 bare_ad_tew            log                    factor                3.5400000000E-01      3.5400000000E-02      5.3100000000E-01       tew                   1.0000000000E+00      0.0000000000E+00      1          
 bare_b_cn              log                    factor                8.8430800000E+01      5.9215400000E+01      9.3715400000E+01       cn                    1.0000000000E+00      0.0000000000E+00      1          
 bare_b_mni             log                    factor                2.0000000000E+00      5.0000000000E-01      4.0000000000E+00       mni                   1.0000000000E+00      0.0000000000E+00      1          
 bare_b_rew             log                    factor                2.9500000000E-01      2.9500000000E-02      4.4250000000E-01       rew                   1.0000000000E+00      0.0000000000E+00      1          
 bare_b_rz              log                    factor                1.2100000000E+00      6.0500000000E-01      1.8150000000E+00       rz                    1.0000000000E+00      0.0000000000E+00      1          
 bare_b_tew             log                    factor                6.6900000000E-01      6.6900000000E-02      1.0035000000E+00       tew                   1.0000000000E+00      0.0000000000E+00      1          
 bare_bd_mni            log                    factor                7.5000000000E-01      1.8750000000E-01      1.5000000000E+00       mni                   1.0000000000E+00      0.0000000000E+00      1          
 bare_bd_rew            log                    factor                4.7200000000E-01      4.7200000000E-02      7.0800000000E-01       rew                   1.0000000000E+00      0.0000000000E+00      1          
 bare_bd_rz             log                    factor                1.2100000000E+00      6.0500000000E-01      1.8150000000E+00       rz                    1.0000000000E+00      0.0000000000E+00      1          
 bare_bd_tew            log                    factor                1.0630000000E+00      1.0630000000E-01      1.5945000000E+00       tew                   1.0000000000E+00      0.0000000000E+00      1          
 bare_c_cn              log                    factor                9.2355400000E+01      6.1177700000E+01      9.5677700000E+01       cn                    1.0000000000E+00      0.0000000000E+00      1          
 bare_c_mni             log                    factor                2.2130000000E-01      5.5325000000E-02      4.4260000000E-01       mni                   1.0000000000E+00      0.0000000000E+00      1          
 bare_c_rew             log                    factor                3.9300000000E-01      3.9300000000E-02      5.8950000000E-01       rew                   1.0000000000E+00      0.0000000000E+00      1          
 bare_c_rz              log                    factor                1.2100000000E+00      6.0500000000E-01      1.8150000000E+00       rz                    1.0000000000E+00      0.0000000000E+00      1          
 bare_c_tew             log                    factor                9.0600000000E-01      9.0600000000E-02      1.3590000000E+00       tew                   1.0000000000E+00      0.0000000000E+00      1          
 bare_cd_mni            log                    factor                6.0000000000E-02      1.5000000000E-02      1.2000000000E-01       mni                   1.0000000000E+00      0.0000000000E+00      1          
 bare_cd_rew            log                    factor                4.7200000000E-01      4.7200000000E-02      7.0800000000E-01       rew                   1.0000000000E+00      0.0000000000E+00      1          
 bare_cd_rz             log                    factor                1.2100000000E+00      6.0500000000E-01      1.8150000000E+00       rz                    1.0000000000E+00      0.0000000000E+00      1          
 bare_cd_tew            log                    factor                1.0630000000E+00      1.0630000000E-01      1.5945000000E+00       tew                   1.0000000000E+00      0.0000000000E+00      1          
 bare_d_cn              log                    factor                9.3899200000E+01      6.1949600000E+01      9.6449600000E+01       cn                    1.0000000000E+00      0.0000000000E+00      1          
 bare_d_mni             log                    factor                9.8100000000E-02      2.4525000000E-02      1.9620000000E-01       mni                   1.0000000000E+00      0.0000000000E+00      1          
 bare_d_rew             log                    factor                4.7200000000E-01      4.7200000000E-02      7.0800000000E-01       rew                   1.0000000000E+00      0.0000000000E+00      1          
 bare_d_rz              log                    factor                1.2100000000E+00      6.0500000000E-01      1.8150000000E+00       rz                    1.0000000000E+00      0.0000000000E+00      1          
 bare_d_tew             log                    factor                1.0630000000E+00      1.0630000000E-01      1.5945000000E+00       tew                   1.0000000000E+00      0.0000000000E+00      1          
 barr_kcb-mid           log                    factor                2.0000000000E-01      1.5000000000E-01      2.5000000000E-01       kcb-mid               1.0000000000E+00      0.0000000000E+00      1          
 cane_kcb-mid           log                    factor                1.0000000000E+00      7.5000000000E-01      1.2500000000E+00       kcb-mid               1.0000000000E+00      0.0000000000E+00      1          
 cor_height             log                    factor                8.0000000000E+00      4.0000000000E+00      1.2000000000E+01       height                1.0000000000E+00      0.0000000000E+00      1          
 cor_kcb-mid            log                    factor                8.5000000000E-01      6.3750000000E-01      1.0625000000E+00       kcb-mid               1.0000000000E+00      0.0000000000E+00      1          
 cot_a_cn               log                    factor                5.4400000000E+01      4.2200000000E+01      7.6700000000E+01       cn                    1.0000000000E+00      0.0000000000E+00      1          
 cot_a_mni              log                    factor                3.7500000000E+00      9.3750000000E-01      7.5000000000E+00       mni                   1.0000000000E+00      0.0000000000E+00      1          
 cot_a_rew              log                    factor                1.9600000000E-01      1.9600000000E-02      2.9400000000E-01       rew                   1.0000000000E+00      0.0000000000E+00      1          
 cot_a_rz               log                    factor                2.7350394000E+00      1.3675197000E+00      4.1025591000E+00       rz                    1.0000000000E+00      0.0000000000E+00      1          
 cot_a_tew              log                    factor                3.5400000000E-01      3.5400000000E-02      5.3100000000E-01       tew                   1.0000000000E+00      0.0000000000E+00      1          
 cot_ad_mni             log                    factor                3.0000000000E+00      7.5000000000E-01      6.0000000000E+00       mni                   1.0000000000E+00      0.0000000000E+00      1          
 cot_ad_rew             log                    factor                1.9600000000E-01      1.9600000000E-02      2.9400000000E-01       rew                   1.0000000000E+00      0.0000000000E+00      1          
 cot_ad_rz              log                    factor                2.7350394000E+00      1.3675197000E+00      4.1025591000E+00       rz                    1.0000000000E+00      0.0000000000E+00      1          
 cot_ad_tew             log                    factor                3.5400000000E-01      3.5400000000E-02      5.3100000000E-01       tew                   1.0000000000E+00      0.0000000000E+00      1          
 cot_b_cn               log                    factor                7.1636800000E+01      5.0818400000E+01      8.5318400000E+01       cn                    1.0000000000E+00      0.0000000000E+00      1          
 cot_b_mni              log                    factor                2.0000000000E+00      5.0000000000E-01      4.0000000000E+00       mni                   1.0000000000E+00      0.0000000000E+00      1          
 cot_b_rew              log                    factor                2.9500000000E-01      2.9500000000E-02      4.4250000000E-01       rew                   1.0000000000E+00      0.0000000000E+00      1          
 cot_b_rz               log                    factor                1.8000000000E+00      9.0000000000E-01      2.7000000000E+00       rz                    1.0000000000E+00      0.0000000000E+00      1          
 cot_b_tew              log                    factor                6.6900000000E-01      6.6900000000E-02      1.0035000000E+00       tew                   1.0000000000E+00      0.0000000000E+00      1          
 cot_bd_mni             log                    factor                7.5000000000E-01      1.8750000000E-01      1.5000000000E+00       mni                   1.0000000000E+00      0.0000000000E+00      1          
 cot_bd_rew             log                    factor                4.7200000000E-01      4.7200000000E-02      7.0800000000E-01       rew                   1.0000000000E+00      0.0000000000E+00      1          
 cot_bd_rz              log                    factor                1.8000000000E+00      9.0000000000E-01      2.7000000000E+00       rz                    1.0000000000E+00      0.0000000000E+00      1          
 cot_bd_tew             log                    factor                1.0630000000E+00      1.0630000000E-01      1.5945000000E+00       tew                   1.0000000000E+00      0.0000000000E+00      1          
 cot_c_cn               log                    factor                8.1258400000E+01      5.5629200000E+01      9.0129200000E+01       cn                    1.0000000000E+00      0.0000000000E+00      1          
 cot_c_mni              log                    factor                2.2130000000E-01      5.5325000000E-02      4.4260000000E-01       mni                   1.0000000000E+00      0.0000000000E+00      1          
 cot_c_rew              log                    factor                3.9300000000E-01      3.9300000000E-02      5.8950000000E-01       rew                   1.0000000000E+00      0.0000000000E+00      1          
 cot_c_rz               log                    factor                1.8000000000E+00      9.0000000000E-01      2.7000000000E+00       rz                    1.0000000000E+00      0.0000000000E+00      1          
 cot_c_tew              log                    factor                9.0600000000E-01      9.0600000000E-02      1.3590000000E+00       tew                   1.0000000000E+00      0.0000000000E+00      1          
 cot_cd_mni             log                    factor                6.0000000000E-02      1.5000000000E-02      1.2000000000E-01       mni                   1.0000000000E+00      0.0000000000E+00      1          
 cot_cd_rew             log                    factor                4.7200000000E-01      4.7200000000E-02      7.0800000000E-01       rew                   1.0000000000E+00      0.0000000000E+00      1          
 cot_cd_rz              log                    factor                1.8000000000E+00      9.0000000000E-01      2.7000000000E+00       rz                    1.0000000000E+00      0.0000000000E+00      1          
 cot_cd_tew             log                    factor                1.0630000000E+00      1.0630000000E-01      1.5945000000E+00       tew                   1.0000000000E+00      0.0000000000E+00      1          
 cot_d_cn               log                    factor                8.5043200000E+01      5.7521600000E+01      9.2021600000E+01       cn                    1.0000000000E+00      0.0000000000E+00      1          
 cot_d_mni              log                    factor                9.8100000000E-02      2.4525000000E-02      1.9620000000E-01       mni                   1.0000000000E+00      0.0000000000E+00      1          
 cot_d_rew              log                    factor                4.7200000000E-01      4.7200000000E-02      7.0800000000E-01       rew                   1.0000000000E+00      0.0000000000E+00      1          
 cot_d_rz               log                    factor                1.8000000000E+00      9.0000000000E-01      2.7000000000E+00       rz                    1.0000000000E+00      0.0000000000E+00      1          
 cot_d_tew              log                    factor                1.0630000000E+00      1.0630000000E-01      1.5945000000E+00       tew                   1.0000000000E+00      0.0000000000E+00      1          
 cot_kcb-mid            log                    factor                1.0000000000E+00      7.5000000000E-01      1.2500000000E+00       kcb-mid               1.0000000000E+00      0.0000000000E+00      1          
 crop1_a_cn             log                    factor                5.6950000000E+01      4.3475000000E+01      7.7975000000E+01       cn                    1.0000000000E+00      0.0000000000E+00      1          
 crop1_a_mni            log                    factor                3.7500000000E+00      9.3750000000E-01      7.5000000000E+00       mni                   1.0000000000E+00      0.0000000000E+00      1          
 crop1_a_rew            log                    factor                1.9600000000E-01      1.9600000000E-02      2.9400000000E-01       rew                   1.0000000000E+00      0.0000000000E+00      1          
 crop1_a_rz             log                    factor                2.7350394000E+00      1.3675197000E+00      4.1025591000E+00       rz                    1.0000000000E+00      0.0000000000E+00      1          
 crop1_a_tew            log                    factor                3.5400000000E-01      3.5400000000E-02      5.3100000000E-01       tew                   1.0000000000E+00      0.0000000000E+00      1          
 crop1_ad_mni           log                    factor                3.0000000000E+00      7.5000000000E-01      6.0000000000E+00       mni                   1.0000000000E+00      0.0000000000E+00      1          
 crop1_ad_rew           log                    factor                1.9600000000E-01      1.9600000000E-02      2.9400000000E-01       rew                   1.0000000000E+00      0.0000000000E+00      1          
 crop1_ad_rz            log                    factor                2.7350394000E+00      1.3675197000E+00      4.1025591000E+00       rz                    1.0000000000E+00      0.0000000000E+00      1          
 crop1_ad_tew           log                    factor                3.5400000000E-01      3.5400000000E-02      5.3100000000E-01       tew                   1.0000000000E+00      0.0000000000E+00      1          
 crop1_b_cn             log                    factor                7.3222900000E+01      5.1611450000E+01      8.6111450000E+01       cn                    1.0000000000E+00      0.0000000000E+00      1          
 crop1_b_mni            log                    factor                2.0000000000E+00      5.0000000000E-01      4.0000000000E+00       mni                   1.0000000000E+00      0.0000000000E+00      1          
 crop1_b_rew            log                    factor                2.9500000000E-01      2.9500000000E-02      4.4250000000E-01       rew                   1.0000000000E+00      0.0000000000E+00      1          
 crop1_b_rz             log                    factor                1.8000000000E+00      9.0000000000E-01      2.7000000000E+00       rz                    1.0000000000E+00      0.0000000000E+00      1          
 crop1_b_tew            log                    factor                6.6900000000E-01      6.6900000000E-02      1.0035000000E+00       tew                   1.0000000000E+00      0.0000000000E+00      1          
 crop1_bd_mni           log                    factor                7.5000000000E-01      1.8750000000E-01      1.5000000000E+00       mni                   1.0000000000E+00      0.0000000000E+00      1          
 crop1_bd_rew           log                    factor                4.7200000000E-01      4.7200000000E-02      7.0800000000E-01       rew                   1.0000000000E+00      0.0000000000E+00      1          
 crop1_bd_rz            log                    factor                1.8000000000E+00      9.0000000000E-01      2.7000000000E+00       rz                    1.0000000000E+00      0.0000000000E+00      1          
 crop1_bd_tew           log                    factor                1.0630000000E+00      1.0630000000E-01      1.5945000000E+00       tew                   1.0000000000E+00      0.0000000000E+00      1          
 crop1_c_cn             log                    factor                8.2306400000E+01      5.6153200000E+01      9.0653200000E+01       cn                    1.0000000000E+00      0.0000000000E+00      1          
 crop1_c_mni            log                    factor                2.2130000000E-01      5.5325000000E-02      4.4260000000E-01       mni                   1.0000000000E+00      0.0000000000E+00      1          
 crop1_c_rew            log                    factor                3.9300000000E-01      3.9300000000E-02      5.8950000000E-01       rew                   1.0000000000E+00      0.0000000000E+00      1          
 crop1_c_rz             log                    factor                1.8000000000E+00      9.0000000000E-01      2.7000000000E+00       rz                    1.0000000000E+00      0.0000000000E+00      1          
 crop1_c_tew            log                    factor                9.0600000000E-01      9.0600000000E-02      1.3590000000E+00       tew                   1.0000000000E+00      0.0000000000E+00      1          
 crop1_cd_mni           log                    factor                6.0000000000E-02      1.5000000000E-02      1.2000000000E-01       mni                   1.0000000000E+00      0.0000000000E+00      1          
 crop1_cd_rew           log                    factor                4.7200000000E-01      4.7200000000E-02      7.0800000000E-01       rew                   1.0000000000E+00      0.0000000000E+00      1          
 crop1_cd_rz            log                    factor                1.8000000000E+00      9.0000000000E-01      2.7000000000E+00       rz                    1.0000000000E+00      0.0000000000E+00      1          
 crop1_cd_tew           log                    factor                1.0630000000E+00      1.0630000000E-01      1.5945000000E+00       tew                   1.0000000000E+00      0.0000000000E+00      1          
 crop1_d_cn             log                    factor                8.5879600000E+01      5.7939800000E+01      9.2439800000E+01       cn                    1.0000000000E+00      0.0000000000E+00      1          
 crop1_d_mni            log                    factor                9.8100000000E-02      2.4525000000E-02      1.9620000000E-01       mni                   1.0000000000E+00      0.0000000000E+00      1          
 crop1_d_rew            log                    factor                4.7200000000E-01      4.7200000000E-02      7.0800000000E-01       rew                   1.0000000000E+00      0.0000000000E+00      1          
 crop1_d_rz             log                    factor                1.8000000000E+00      9.0000000000E-01      2.7000000000E+00       rz                    1.0000000000E+00      0.0000000000E+00      1          
 crop1_d_tew            log                    factor                1.0630000000E+00      1.0630000000E-01      1.5945000000E+00       tew                   1.0000000000E+00      0.0000000000E+00      1          
 crop2_a_cn             log                    factor                5.6950000000E+01      4.3475000000E+01      7.7975000000E+01       cn                    1.0000000000E+00      0.0000000000E+00      1          
 crop2_a_mni            log                    factor                3.7500000000E+00      9.3750000000E-01      7.5000000000E+00       mni                   1.0000000000E+00      0.0000000000E+00      1          
 crop2_a_rew            log                    factor                1.9600000000E-01      1.9600000000E-02      2.9400000000E-01       rew                   1.0000000000E+00      0.0000000000E+00      1          
 crop2_a_rz             log                    factor                2.7350394000E+00      1.3675197000E+00      4.1025591000E+00       rz                    1.0000000000E+00      0.0000000000E+00      1          
 crop2_a_tew            log                    factor                3.5400000000E-01      3.5400000000E-02      5.3100000000E-01       tew                   1.0000000000E+00      0.0000000000E+00      1          
 crop2_ad_mni           log                    factor                3.0000000000E+00      7.5000000000E-01      6.0000000000E+00       mni                   1.0000000000E+00      0.0000000000E+00      1          
 crop2_ad_rew           log                    factor                1.9600000000E-01      1.9600000000E-02      2.9400000000E-01       rew                   1.0000000000E+00      0.0000000000E+00      1          
 crop2_ad_rz            log                    factor                2.7350394000E+00      1.3675197000E+00      4.1025591000E+00       rz                    1.0000000000E+00      0.0000000000E+00      1          
 crop2_ad_tew           log                    factor                3.5400000000E-01      3.5400000000E-02      5.3100000000E-01       tew                   1.0000000000E+00      0.0000000000E+00      1          
 crop2_b_cn             log                    factor                7.1108100000E+01      5.0554050000E+01      8.5054050000E+01       cn                    1.0000000000E+00      0.0000000000E+00      1          
 crop2_b_mni            log                    factor                2.0000000000E+00      5.0000000000E-01      4.0000000000E+00       mni                   1.0000000000E+00      0.0000000000E+00      1          
 crop2_b_rew            log                    factor                2.9500000000E-01      2.9500000000E-02      4.4250000000E-01       rew                   1.0000000000E+00      0.0000000000E+00      1          
 crop2_b_rz             log                    factor                1.8000000000E+00      9.0000000000E-01      2.7000000000E+00       rz                    1.0000000000E+00      0.0000000000E+00      1          
 crop2_b_tew            log                    factor                6.6900000000E-01      6.6900000000E-02      1.0035000000E+00       tew                   1.0000000000E+00      0.0000000000E+00      1          
 crop2_bd_mni           log                    factor                7.5000000000E-01      1.8750000000E-01      1.5000000000E+00       mni                   1.0000000000E+00      0.0000000000E+00      1          
 crop2_bd_rew           log                    factor                4.7200000000E-01      4.7200000000E-02      7.0800000000E-01       rew                   1.0000000000E+00      0.0000000000E+00      1          
 crop2_bd_rz            log                    factor                1.8000000000E+00      9.0000000000E-01      2.7000000000E+00       rz                    1.0000000000E+00      0.0000000000E+00      1          
 crop2_bd_tew           log                    factor                1.0630000000E+00      1.0630000000E-01      1.5945000000E+00       tew                   1.0000000000E+00      0.0000000000E+00      1          
 crop2_c_cn             log                    factor                8.0909000000E+01      5.5454500000E+01      8.9954500000E+01       cn                    1.0000000000E+00      0.0000000000E+00      1          
 crop2_c_mni            log                    factor                2.2130000000E-01      5.5325000000E-02      4.4260000000E-01       mni                   1.0000000000E+00      0.0000000000E+00      1          
 crop2_c_rew            log                    factor                3.9300000000E-01      3.9300000000E-02      5.8950000000E-01       rew                   1.0000000000E+00      0.0000000000E+00      1          
 crop2_c_rz             log                    factor                1.8000000000E+00      9.0000000000E-01      2.7000000000E+00       rz                    1.0000000000E+00      0.0000000000E+00      1          
 crop2_c_tew            log                    factor                7.5000000000E-01      7.5000000000E-02      1.1250000000E+00       tew                   1.0000000000E+00      0.0000000000E+00      1          
 crop2_cd_mni           log                    factor                6.0000000000E-02      1.5000000000E-02      1.2000000000E-01       mni                   1.0000000000E+00      0.0000000000E+00      1          
 crop2_cd_rew           log                    factor                4.7200000000E-01      4.7200000000E-02      7.0800000000E-01       rew                   1.0000000000E+00      0.0000000000E+00      1          
 crop2_cd_rz            log                    factor                1.8000000000E+00      9.0000000000E-01      2.7000000000E+00       rz                    1.0000000000E+00      0.0000000000E+00      1          
 crop2_cd_tew           log                    factor                1.0630000000E+00      1.0630000000E-01      1.5945000000E+00       tew                   1.0000000000E+00      0.0000000000E+00      1          
 crop2_d_cn             log                    factor                8.4764400000E+01      5.7382200000E+01      9.1882200000E+01       cn                    1.0000000000E+00      0.0000000000E+00      1          